Circuit: * C:\Users\Composite\Desktop\A case study on magnetic cores\LTspice_Transformers\Non-linear_transformer.asc

WARNING: Node SEC is floating.

.OP point found by inspection.

Date: Sun Feb 25 18:27:24 2024
Total elapsed time: 0.159 seconds.

tnom = 27
temp = 27
method = modified trap
totiter = 2095
traniter = 2095
tranpoints = 1039
accept = 1038
rejected = 1
matrix size = 14
fillins = 3
solver = Normal
Matrix Compiler1: 778 bytes object code size  0.2/0.1/[0.1]
Matrix Compiler2: 1006 bytes object code size  0.1/0.2/[0.1]

